# UAX #11: East Asian Neutral

# Plane 00
# Rows	Positions (Cells)

  00	A0 A9 AB B5 BB C0-C5 C7-CF D1-D6 D9-DD E2-E5 E7 EB EE-EF F1 F4-F6
  00	FB FD FF
  01	00 02-10 12 14-1A 1C-25 28-2A 2C-30 34-37 39-3E 43 45-47 4C 4E-51
  01	54-65 68-6A 6C-CD CF D1 D3 D5 D7 D9 DB DD-FF
  02	00-50 52-60 62-C3 C5-C6 C8 CC CE-CF D1-D7 DC DE E0-FF
  03	70-77 7A-7F 84-8A 8C 8E-90 AA-B0 C2 CA-FF
  04	00 02-0F 50 52-FF
  05	00-2F 31-56 59-5F 61-87 89-8A 8D-8F 91-C7 D0-EA F0-F4
  06	00-1C 1E-FF
  07	00-0D 0F-4A 4D-B1 C0-FA
  08	00-2D 30-3E 40-5B 5E 60-6A A0-B4 B6-BD D4-FF
  09	00-83 85-8C 8F-90 93-A8 AA-B0 B2 B6-B9 BC-C4 C7-C8 CB-CE D7 DC-DD
  09	DF-E3 E6-FD
  0A	01-03 05-0A 0F-10 13-28 2A-30 32-33 35-36 38-39 3C 3E-42 47-48
  0A	4B-4D 51 59-5C 5E 66-75 81-83 85-8D 8F-91 93-A8 AA-B0 B2-B3 B5-B9
  0A	BC-C5 C7-C9 CB-CD D0 E0-E3 E6-F1 F9-FF
  0B	01-03 05-0C 0F-10 13-28 2A-30 32-33 35-39 3C-44 47-48 4B-4D 56-57
  0B	5C-5D 5F-63 66-77 82-83 85-8A 8E-90 92-95 99-9A 9C 9E-9F A3-A4
  0B	A8-AA AE-B9 BE-C2 C6-C8 CA-CD D0 D7 E6-FA
  0C	00-03 05-0C 0E-10 12-28 2A-39 3D-44 46-48 4A-4D 55-56 58-5A 60-63
  0C	66-6F 78-83 85-8C 8E-90 92-A8 AA-B3 B5-B9 BC-C4 C6-C8 CA-CD D5-D6
  0C	DE E0-E3 E6-EF F1-F2
  0D	00-03 05-0C 0E-10 12-44 46-48 4A-4F 54-63 66-7F 82-83 85-96 9A-B1
  0D	B3-BB BD C0-C6 CA CF-D4 D6 D8-DF E6-EF F2-F4
  0E	01-3A 3F-5B 81-82 84 87-88 8A 8D 94-97 99-9F A1-A3 A5 A7 AA-AB
  0E	AD-B9 BB-BD C0-C4 C6 C8-CD D0-D9 DC-DF
  0F	00-47 49-6C 71-97 99-BC BE-CC CE-DA
  10	00-C5 C7 CD D0-FF
  11	60-FF
  12	00-48 4A-4D 50-56 58 5A-5D 60-88 8A-8D 90-B0 B2-B5 B8-BE C0 C2-C5
  12	C8-D6 D8-FF
  13	00-10 12-15 18-5A 5D-7C 80-99 A0-F5 F8-FD
  14	00-FF
  15	00-FF
  16	00-9C A0-F8
  17	00-0C 0E-14 20-36 40-53 60-6C 6E-70 72-73 80-DD E0-E9 F0-F9
  18	00-0E 10-19 20-77 80-AA B0-F5
  19	00-1E 20-2B 30-3B 40 44-6D 70-74 80-AB B0-C9 D0-DA DE-FF
  1A	00-1B 1E-5E 60-7C 7F-89 90-99 A0-AD B0-BE
  1B	00-4B 50-7C 80-F3 FC-FF
  1C	00-37 3B-49 4D-88 C0-C7 D0-F9
  1D	00-F9 FB-FF
  1E	00-FF
  1F	00-15 18-1D 20-45 48-4D 50-57 59 5B 5D 5F-7D 80-B4 B6-C4 C6-D3
  1F	D6-DB DD-EF F2-F4 F6-FE
  20	00-0F 11-12 17 1A-1B 1E-1F 23 28-2F 31 34 36-3A 3C-3D 3F-64 66-71
  20	75-7E 80 85-8E 90-9C A0-A8 AA-AB AD-BF D0-F0
  21	00-02 04 06-08 0A-12 14-15 17-20 23-25 27-2A 2C-52 55-5A 5F 6C-6F
  21	7A-88 8A-8B 9A-B7 BA-D1 D3 D5-E6 E8-FF
  22	01 04-06 09-0A 0C-0E 10 12-14 16-19 1B-1C 21-22 24 26 2D 2F-33
  22	38-3B 3E-47 49-4B 4D-51 53-5F 62-63 68-69 6C-6D 70-81 84-85 88-94
  22	96-98 9A-A4 A6-BE C0-FF
  23	00-11 13-19 1C-28 2B-E8 ED-EF F1-F2 F4-FF
  24	00-26 40-4A EA
  25	4C-4F 74-7F 90-91 96-9F A2 AA-B1 B4-B5 B8-BB BE-BF C2-C5 C9-CA
  25	CC-CD D2-E1 E6-EE F0-FC FF
  26	00-04 07-08 0A-0D 10-13 16-1B 1D 1F-3F 41 43-47 54-5F 62 66 6B
  26	6E 70-7E 80-92 94-9D A0 A2-A9 AC-BC C0-C3 E2 E4-E7
  27	00-04 06-09 0C-27 29-3C 3E-4B 4D 4F-52 56 58-75 80-94 98-AF B1-BE
  27	C0-E5 EE-FF
  28	00-FF
  29	00-84 87-FF
  2A	00-FF
  2B	00-1A 1D-4F 51-54 5A-73 76-95 98-B9 BD-C8 CA-D2 EC-EF
  2C	00-2E 30-5E 60-F3 F9-FF
  2D	00-25 27 2D 30-67 6F-70 7F-96 A0-A6 A8-AE B0-B6 B8-BE C0-C6 C8-CE
  2D	D0-D6 D8-DE E0-FF
  2E	00-49
  30	3F
  4D	C0-FF
  A4	D0-FF
  A5	00-FF
  A6	00-2B 40-F7
  A7	00-AE B0-B7 F7-FF
  A8	00-2B 30-39 40-77 80-C5 CE-D9 E0-FD
  A9	00-53 5F 80-CD CF-D9 DE-FE
  AA	00-36 40-4D 50-59 5C-C2 DB-F6
  AB	01-06 09-0E 11-16 20-26 28-2E 30-65 70-ED F0-F9
  D7	B0-C6 CB-FB
  D8	00-FF
  D9	00-FF
  DA	00-FF
  DB	00-FF
  DC	00-FF
  DD	00-FF
  DE	00-FF
  DF	00-FF
  FB	00-06 13-17 1D-36 38-3C 3E 40-41 43-44 46-C1 D3-FF
  FC	00-FF
  FD	00-3F 50-8F 92-C7 F0-FD
  FE	20-2F 70-74 76-FC FF
  FF	F9-FC
  100	00-0B 0D-26 28-3A 3C-3D 3F-4D 50-5D 80-FA
  101	00-02 07-33 37-8E 90-9B A0 D0-FD
  102	80-9C A0-D0 E0-FB
  103	00-23 2D-4A 50-7A 80-9D 9F-C3 C8-D5
  104	00-9D A0-A9 B0-D3 D8-FB
  105	00-27 30-63 6F
  106	00-FF
  107	00-36 40-55 60-67
  108	00-05 08 0A-35 37-38 3C 3F-55 57-9E A7-AF E0-F2 F4-F5 FB-FF
  109	00-1B 1F-39 3F 80-B7 BC-CF D2-FF
  10A	00-03 05-06 0C-13 15-17 19-33 38-3A 3F-47 50-58 60-9F C0-E6 EB-F6
  10B	00-35 39-55 58-72 78-91 99-9C A9-AF
  10C	00-48 80-B2 C0-F2 FA-FF
  10E	60-7E
  110	00-4D 52-6F 7F-C1 D0-E8 F0-F9
  111	00-34 36-43 50-76 80-CD D0-DF E1-F4
  112	00-11 13-3E 80-86 88 8A-8D 8F-9D 9F-A9 B0-EA F0-F9
  113	00-03 05-0C 0F-10 13-28 2A-30 32-33 35-39 3C-44 47-48 4B-4D 50
  113	57 5D-63 66-6C 70-74
  114	00-59 5B 5D 80-C7 D0-D9
  115	80-B5 B8-DD
  116	00-44 50-59 60-6C 80-B7 C0-C9
  117	00-19 1D-2B 30-3F
  118	A0-F2 FF
  11A	00-47 50-83 86-9C 9E-A2 C0-F8
  11C	00-08 0A-36 38-45 50-6C 70-8F 92-A7 A9-B6
  11D	00-06 08-09 0B-36 3A 3C-3D 3F-47 50-59
  120	00-FF
  121	00-FF
  122	00-FF
  123	00-99
  124	00-6E 70-74 80-FF
  125	00-43
  130	00-FF
  131	00-FF
  132	00-FF
  133	00-FF
  134	00-2E
  144	00-FF
  145	00-FF
  146	00-46
  168	00-FF
  169	00-FF
  16A	00-38 40-5E 60-69 6E-6F D0-ED F0-F5
  16B	00-45 50-59 5B-61 63-77 7D-8F
  16F	00-44 50-7E 8F-9F
  1BC	00-6A 70-7C 80-88 90-99 9C-A3
  1D0	00-F5
  1D1	00-26 29-E8
  1D2	00-45
  1D3	00-56 60-71
  1D4	00-54 56-9C 9E-9F A2 A5-A6 A9-AC AE-B9 BB BD-C3 C5-FF
  1D5	00-05 07-0A 0D-14 16-1C 1E-39 3B-3E 40-44 46 4A-50 52-FF
  1D6	00-A5 A8-FF
  1D7	00-CB CE-FF
  1D8	00-FF
  1D9	00-FF
  1DA	00-8B 9B-9F A1-AF
  1E0	00-06 08-18 1B-21 23-24 26-2A
  1E8	00-C4 C7-D6
  1E9	00-4A 50-59 5E-5F
  1EE	00-03 05-1F 21-22 24 27 29-32 34-37 39 3B 42 47 49 4B 4D-4F 51-52
  1EE	54 57 59 5B 5D 5F 61-62 64 67-6A 6C-72 74-77 79-7C 7E 80-89 8B-9B
  1EE	A1-A3 A5-A9 AB-BB F0-F1
  1F0	00-03 05-2B 30-93 A0-AE B1-BF C1-CE D1-F5
  1F1	0B-0C 2E 6A-6B E6-FF
  1F3	21-2C 36 7D 94-9F CB-CE D4-DF F1-F3 F5-F7
  1F4	3F 41 FD-FE
  1F5	3E-4A 4F 68-79 7B-94 97-A3 A5-FA
  1F6	50-7F C6-CB CD-CF D3-D4 E0-EA F0-F3
  1F7	00-73 80-D4
  1F8	00-0B 10-47 50-59 60-87 90-AD
  1F9	00-0B
  E00	01 20-7F

